Nordic_test_system_together.m
mpc.version = '2';
mpc.baseMVA = 100.0;
mpc.baseKG=17286;
mpc.frequency1=50;
mpc.rocof1=1;
mpc.deltaf=1;


%% bus data
%	bus_i	type		Pd		Qd		  Gs	 Bs	   area		Vm	   Va		   baseKV	zone	  Vmax			 Vmin
mpc.bus = [
% Slack bus (largest generator: 4937 with 4476.97 MW)
	4937	3		0.0		0.0		0.0		0.0		1		1.0		0		380.0		1		1.10000		0.90000;

% PV buses (all other generator buses)
	1517	2		0.0		0.0		0.0		0.0		1		1.0		0		380.0		1		1.10000		0.90000;
	1523	2		0.0		0.0		0.0		0.0		1		1.0		0		380.0		1		1.10000		0.90000;
	1524	2		0.0		0.0		0.0		0.0		1		1.0		0		380.0		1		1.10000		0.90000;
	1535	2		0.0		0.0		0.0		0.0		1		1.0		0		380.0		1		1.10000		0.90000;
	1544	2		0.0		0.0		0.0		0.0		1		1.0		0		380.0		1		1.10000		0.90000;
	1547	2		0.0		0.0		0.0		0.0		1		1.0		0		380.0		1		1.10000		0.90000;
	1555	2		0.0		0.0		0.0		0.0		1		1.0		0		380.0		1		1.10000		0.90000;
	1559	2		0.0		0.0		0.0		0.0		1		1.0		0		380.0		1		1.10000		0.90000;
	1569	2		0.0		0.0		0.0		0.0		1		1.0		0		380.0		1		1.10000		0.90000;
	1571	2		0.0		0.0		0.0		0.0		1		1.0		0		380.0		1		1.10000		0.90000;
	1603	2		0.0		0.0		0.0		0.0		1		1.0		0		380.0		1		1.10000		0.90000;
	2457	2		0.0		0.0		0.0		0.0		1		1.0		0		380.0		1		1.10000		0.90000;
	2458	2		0.0		0.0		0.0		0.0		1		1.0		0		380.0		1		1.10000		0.90000;
	2460	2		0.0		0.0		0.0		0.0		1		1.0		0		380.0		1		1.10000		0.90000;
	4914	2		0.0		0.0		0.0		0.0		1		1.0		0		380.0		1		1.10000		0.90000;
	4915	2		0.0		0.0		0.0		0.0		1		1.0		0		380.0		1		1.10000		0.90000;
	4916	2		0.0		0.0		0.0		0.0		1		1.0		0		380.0		1		1.10000		0.90000;
	4917	2		0.0		0.0		0.0		0.0		1		1.0		0		380.0		1		1.10000		0.90000;
	4918	2		0.0		0.0		0.0		0.0		1		1.0		0		380.0		1		1.10000		0.90000;
	4919	2		0.0		0.0		0.0		0.0		1		1.0		0		380.0		1		1.10000		0.90000;
	4920	2		0.0		0.0		0.0		0.0		1		1.0		0		380.0		1		1.10000		0.90000;
	4921	2		0.0		0.0		0.0		0.0		1		1.0		0		380.0		1		1.10000		0.90000;
	4922	2		0.0		0.0		0.0		0.0		1		1.0		0		380.0		1		1.10000		0.90000;
	4923	2		0.0		0.0		0.0		0.0		1		1.0		0		380.0		1		1.10000		0.90000;
	4924	2		0.0		0.0		0.0		0.0		1		1.0		0		380.0		1		1.10000		0.90000;
	4925	2		0.0		0.0		0.0		0.0		1		1.0		0		380.0		1		1.10000		0.90000;
	4926	2		0.0		0.0		0.0		0.0		1		1.0		0		380.0		1		1.10000		0.90000;
	4927	2		0.0		0.0		0.0		0.0		1		1.0		0		380.0		1		1.10000		0.90000;
	4928	2		0.0		0.0		0.0		0.0		1		1.0		0		380.0		1		1.10000		0.90000;
	4929	2		0.0		0.0		0.0		0.0		1		1.0		0		380.0		1		1.10000		0.90000;
	4930	2		0.0		0.0		0.0		0.0		1		1.0		0		380.0		1		1.10000		0.90000;
	4931	2		0.0		0.0		0.0		0.0		1		1.0		0		380.0		1		1.10000		0.90000;
	4932	2		0.0		0.0		0.0		0.0		1		1.0		0		380.0		1		1.10000		0.90000;
	4933	2		0.0		0.0		0.0		0.0		1		1.0		0		380.0		1		1.10000		0.90000;
	4934	2		0.0		0.0		0.0		0.0		1		1.0		0		380.0		1		1.10000		0.90000;
	4935	2		0.0		0.0		0.0		0.0		1		1.0		0		380.0		1		1.10000		0.90000;
	4936	2		0.0		0.0		0.0		0.0		1		1.0		0		380.0		1		1.10000		0.90000;
	4938	2		0.0		0.0		0.0		0.0		1		1.0		0		380.0		1		1.10000		0.90000;
	4939	2		0.0		0.0		0.0		0.0		1		1.0		0		380.0		1		1.10000		0.90000;
	4940	2		0.0		0.0		0.0		0.0		1		1.0		0		380.0		1		1.10000		0.90000;
	4941	2		0.0		0.0		0.0		0.0		1		1.0		0		380.0		1		1.10000		0.90000;
	5476	2		0.0		0.0		0.0		0.0		1		1.0		0		380.0		1		1.10000		0.90000;
	5477	2		0.0		0.0		0.0		0.0		1		1.0		0		380.0		1		1.10000		0.90000;
	5478	2		0.0		0.0		0.0		0.0		1		1.0		0		380.0		1		1.10000		0.90000;
	5479	2		0.0		0.0		0.0		0.0		1		1.0		0		380.0		1		1.10000		0.90000;
	5480	2		0.0		0.0		0.0		0.0		1		1.0		0		380.0		1		1.10000		0.90000;
	5481	2		0.0		0.0		0.0		0.0		1		1.0		0		380.0		1		1.10000		0.90000;
	5483	2		0.0		0.0		0.0		0.0		1		1.0		0		380.0		1		1.10000		0.90000;
	5484	2		0.0		0.0		0.0		0.0		1		1.0		0		380.0		1		1.10000		0.90000;
	5485	2		0.0		0.0		0.0		0.0		1		1.0		0		380.0		1		1.10000		0.90000;
	5486	2		0.0		0.0		0.0		0.0		1		1.0		0		380.0		1		1.10000		0.90000;
	5487	2		0.0		0.0		0.0		0.0		1		1.0		0		380.0		1		1.10000		0.90000;
	5488	2		0.0		0.0		0.0		0.0		1		1.0		0		380.0		1		1.10000		0.90000;
	5489	2		0.0		0.0		0.0		0.0		1		1.0		0		380.0		1		1.10000		0.90000;
	5490	2		0.0		0.0		0.0		0.0		1		1.0		0		380.0		1		1.10000		0.90000;
	5493	2		0.0		0.0		0.0		0.0		1		1.0		0		380.0		1		1.10000		0.90000;
	5497	2		0.0		0.0		0.0		0.0		1		1.0		0		380.0		1		1.10000		0.90000;
    1519	2	0	0	0	0	1	1	0	380	1	1.1	0.9	;
    1520	2	0	0	0	0	1	1	0	380	1	1.1	0.9	;
    1522	2	0	0	0	0	1	1	0	380	1	1.1	0.9	;
    1525	2	0	0	0	0	1	1	0	380	1	1.1	0.9	;
    1526	2	0	0	0	0	1	1	0	380	1	1.1	0.9	;
    1527	2	0	0	0	0	1	1	0	380	1	1.1	0.9	;
    1528	2	0	0	0	0	1	1	0	380	1	1.1	0.9	;
    1529	2	0	0	0	0	1	1	0	380	1	1.1	0.9	;
    1530	2	0	0	0	0	1	1	0	380	1	1.1	0.9	;
    1531	2	0	0	0	0	1	1	0	380	1	1.1	0.9	;
    1532	2	0	0	0	0	1	1	0	380	1	1.1	0.9	;
    1533	2	0	0	0	0	1	1	0	380	1	1.1	0.9	;
    1534	2	0	0	0	0	1	1	0	380	1	1.1	0.9	;
    1536	2	0	0	0	0	1	1	0	380	1	1.1	0.9	;
    1537	2	0	0	0	0	1	1	0	380	1	1.1	0.9	;
    1540	2	0	0	0	0	1	1	0	380	1	1.1	0.9	;
    1541	2	0	0	0	0	1	1	0	380	1	1.1	0.9	;
    1542	2	0	0	0	0	1	1	0	380	1	1.1	0.9	;
    1546	2	0	0	0	0	1	1	0	380	1	1.1	0.9	;
    1548	2	0	0	0	0	1	1	0	380	1	1.1	0.9	;
    1549	2	0	0	0	0	1	1	0	380	1	1.1	0.9	;
    1550	2	0	0	0	0	1	1	0	380	1	1.1	0.9	;
    1551	2	0	0	0	0	1	1	0	380	1	1.1	0.9	;
    1552	2	0	0	0	0	1	1	0	380	1	1.1	0.9	;
    1553	2	0	0	0	0	1	1	0	380	1	1.1	0.9	;
    1554	2	0	0	0	0	1	1	0	380	1	1.1	0.9	;
    1556	2	0	0	0	0	1	1	0	380	1	1.1	0.9	;
    1557	2	0	0	0	0	1	1	0	380	1	1.1	0.9	;
    1558	2	0	0	0	0	1	1	0	380	1	1.1	0.9	;
    1560	2	0	0	0	0	1	1	0	380	1	1.1	0.9	;
    1561	2	0	0	0	0	1	1	0	380	1	1.1	0.9	;
    1562	2	0	0	0	0	1	1	0	380	1	1.1	0.9	;
    1563	2	0	0	0	0	1	1	0	380	1	1.1	0.9	;
    1564	2	0	0	0	0	1	1	0	380	1	1.1	0.9	;
    1565	2	0	0	0	0	1	1	0	380	1	1.1	0.9	;
    1568	2	0	0	0	0	1	1	0	380	1	1.1	0.9	;
    1570	2	0	0	0	0	1	1	0	380	1	1.1	0.9	;
    1572	2	0	0	0	0	1	1	0	380	1	1.1	0.9	;
    1573	2	0	0	0	0	1	1	0	380	1	1.1	0.9	;
    1574	2	0	0	0	0	1	1	0	380	1	1.1	0.9	;
    1575	2	0	0	0	0	1	1	0	380	1	1.1	0.9	;
    1576	2	0	0	0	0	1	1	0	380	1	1.1	0.9	;
    1577	2	0	0	0	0	1	1	0	380	1	1.1	0.9	;
    1578	2	0	0	0	0	1	1	0	380	1	1.1	0.9	;
    1579	2	0	0	0	0	1	1	0	380	1	1.1	0.9	;
    1580	2	0	0	0	0	1	1	0	380	1	1.1	0.9	;
    1581	2	0	0	0	0	1	1	0	380	1	1.1	0.9	;
    1582	2	0	0	0	0	1	1	0	380	1	1.1	0.9	;
    1583	2	0	0	0	0	1	1	0	380	1	1.1	0.9	;
    1584	2	0	0	0	0	1	1	0	380	1	1.1	0.9	;
    1586	2	0	0	0	0	1	1	0	380	1	1.1	0.9	;
    1589	2	0	0	0	0	1	1	0	380	1	1.1	0.9	;
    1590	2	0	0	0	0	1	1	0	380	1	1.1	0.9	;
    1591	2	0	0	0	0	1	1	0	380	1	1.1	0.9	;
    1592	2	0	0	0	0	1	1	0	380	1	1.1	0.9	;
    1593	2	0	0	0	0	1	1	0	380	1	1.1	0.9	;
    1594	2	0	0	0	0	1	1	0	380	1	1.1	0.9	;
    1595	2	0	0	0	0	1	1	0	380	1	1.1	0.9	;
    1596	2	0	0	0	0	1	1	0	380	1	1.1	0.9	;
    1597	2	0	0	0	0	1	1	0	380	1	1.1	0.9	;
    1598	2	0	0	0	0	1	1	0	380	1	1.1	0.9	;
    1600	2	0	0	0	0	1	1	0	380	1	1.1	0.9	;
    1601	2	0	0	0	0	1	1	0	380	1	1.1	0.9	;
    1602	2	0	0	0	0	1	1	0	380	1	1.1	0.9	;
    1604	2	0	0	0	0	1	1	0	380	1	1.1	0.9	;
    1605	2	0	0	0	0	1	1	0	380	1	1.1	0.9	;
    1606	2	0	0	0	0	1	1	0	380	1	1.1	0.9	;
    1610	2	0	0	0	0	1	1	0	380	1	1.1	0.9	;
    2456	2	0	0	0	0	1	1	0	380	1	1.1	0.9	;
    2459	2	0	0	0	0	1	1	0	380	1	1.1	0.9	;
    2461	2	0	0	0	0	1	1	0	380	1	1.1	0.9	;
    4913	2	0	0	0	0	1	1	0	380	1	1.1	0.9	;
    5475	2	0	0	0	0	1	1	0	380	1	1.1	0.9	;
    5482	2	0	0	0	0	1	1	0	380	1	1.1	0.9	;
    5491	2	0	0	0	0	1	1	0	380	1	1.1	0.9	;
    5492	2	0	0	0	0	1	1	0	380	1	1.1	0.9	;
    5494	2	0	0	0	0	1	1	0	380	1	1.1	0.9	;
    5495	2	0	0	0	0	1	1	0	380	1	1.1	0.9	;
    5496	2	0	0	0	0	1	1	0	380	1	1.1	0.9	;
    1609	2	0	0	0	0	1	1	0	380	1	1.1	0.9	;
    1517	2	0	0	0	0	1	1	0	380	1	1.1	0.9	;
    1524	2	0	0	0	0	1	1	0	380	1	1.1	0.9	;
    1539	2	0	0	0	0	1	1	0	380	1	1.1	0.9	;
    1543	2	0	0	0	0	1	1	0	380	1	1.1	0.9	;
    1555	2	0	0	0	0	1	1	0	380	1	1.1	0.9	;
    1585	2	0	0	0	0	1	1	0	380	1	1.1	0.9	;
    1587	2	0	0	0	0	1	1	0	380	1	1.1	0.9	;
    1588	2	0	0	0	0	1	1	0	380	1	1.1	0.9	;
    1599	2	0	0	0	0	1	1	0	380	1	1.1	0.9	;
    1603	2	0	0	0	0	1	1	0	380	1	1.1	0.9	;
    1608	2	0	0	0	0	1	1	0	380	1	1.1	0.9	;
    2457	2	0	0	0	0	1	1	0	380	1	1.1	0.9	;
    2458	2	0	0	0	0	1	1	0	380	1	1.1	0.9	;
    2460	2	0	0	0	0	1	1	0	380	1	1.1	0.9	;
    4931	2	0	0	0	0	1	1	0	380	1	1.1	0.9	;
    4932	2	0	0	0	0	1	1	0	380	1	1.1	0.9	;
    4933	2	0	0	0	0	1	1	0	380	1	1.1	0.9	;
    4934	2	0	0	0	0	1	1	0	380	1	1.1	0.9	;
    4940	2	0	0	0	0	1	1	0	380	1	1.1	0.9	;
    5476	2	0	0	0	0	1	1	0	380	1	1.1	0.9	;
    5477	2	0	0	0	0	1	1	0	380	1	1.1	0.9	;
    5478	2	0	0	0	0	1	1	0	380	1	1.1	0.9	;
    5479	2	0	0	0	0	1	1	0	380	1	1.1	0.9	;
    5480	2	0	0	0	0	1	1	0	380	1	1.1	0.9	;
    5481	2	0	0	0	0	1	1	0	380	1	1.1	0.9	;
    5483	2	0	0	0	0	1	1	0	380	1	1.1	0.9	;
    5484	2	0	0	0	0	1	1	0	380	1	1.1	0.9	;
    5485	2	0	0	0	0	1	1	0	380	1	1.1	0.9	;
    5486	2	0	0	0	0	1	1	0	380	1	1.1	0.9	;
    5487	2	0	0	0	0	1	1	0	380	1	1.1	0.9	;
    5488	2	0	0	0	0	1	1	0	380	1	1.1	0.9	;
    5489	2	0	0	0	0	1	1	0	380	1	1.1	0.9	;
    5493	2	0	0	0	0	1	1	0	380	1	1.1	0.9	;
    5497	2	0	0	0	0	1	1	0	380	1	1.1	0.9	;
    ];
%% bus mapping: n1=1, n2=2, n3=3, n4=4, n5=5, n6=6

%% branch data r, x, b (7 random branches connecting generator buses)
%  1-fbus  2-tbus   3-r       4-x       5-b       6-rateA  7-rateB  8-rateC  9-ratio  10-angle  11-status  12-angmin  13-angmax
mpc.branch = [
% Branch 1: Connect bus 4937 (slack) to bus 4932 (large generator)
     4937    4932    0.0010    0.0100    0.0000     1000     1000     1000       0         0         1         -60         60;
     
% Branch 2: Connect bus 4937 to bus 4924
     4937    4924    0.0015    0.0150    0.0000     1000     1000     1000       0         0         1         -60         60;
     
% Branch 3: Connect bus 4932 to bus 4922
     4932    4922    0.0020    0.0200    0.0000     1000     1000     1000       0         0         1         -60         60;
     
% Branch 4: Connect bus 4924 to bus 4914
     4924    4914    0.0018    0.0180    0.0000     1000     1000     1000       0         0         1         -60         60;
     
% Branch 5: Connect bus 5477 to bus 5480
     5477    5480    0.0022    0.0220    0.0000     1000     1000     1000       0         0         1         -60         60;
     
% Branch 6: Connect bus 5480 to bus 5484
     5480    5484    0.0012    0.0120    0.0000     1000     1000     1000       0         0         1         -60         60;
     
% Branch 7: Connect bus 2457 to bus 2460
     2457    2460    0.0014    0.0140    0.0000     1000     1000     1000       0         0         1         -60         60;
];

%% Unified generation table
%
% 1-bus 2-Pg 3-Qg 4-Qmax 5-Qmin 6-Vg 7-mBase 8-status 9-Pmax 10-Pmin Pc1 Pc2 Qc1min Qc1max Qc2min Qc2max ramp_agc ramp_10 ramp_30 ramp_q apf alpha

mpc.gen = [
2457    0  0  0    0    0  100   1      2042.84  204.284 0   0   0      0      0      0      0        0       0       0      0   0;
2458    0  0  0    0    0  100   1       894.69   89.469 0   0   0      0      0      0      0        0       0       0      0   0;
2460    0  0  0    0    0  100   1       299.08   29.908 0   0   0      0      0      0      0        0       0       0      0   0;
4914    0  0  0    0    0  100   1      1730.37  173.037 0   0   0      0      0      0      0        0       0       0      0   0;
4915    0  0  0    0    0  100   1       150.65   15.065 0   0   0      0      0      0      0        0       0       0      0   0;
4916    0  0  0    0    0  100   1       383.08   38.308 0   0   0      0      0      0      0        0       0       0      0   0;
4918    0  0  0    0    0  100   1       232.33   23.233 0   0   0      0      0      0      0        0       0       0      0   0;
4919    0  0  0    0    0  100   1      1031.58  103.158 0   0   0      0      0      0      0        0       0       0      0   0;
4920    0  0  0    0    0  100   1       517.79   51.779 0   0   0      0      0      0      0        0       0       0      0   0;
4921    0  0  0    0    0  100   1       179.49   17.949 0   0   0      0      0      0      0        0       0       0      0   0;
4922    0  0  0    0    0  100   1       828.33   82.833 0   0   0      0      0      0      0        0       0       0      0   0;
4923    0  0  0    0    0  100   1      1199.29  119.929 0   0   0      0      0      0      0        0       0       0      0   0;
4924    0  0  0    0    0  100   1      1876.63  187.663 0   0   0      0      0      0      0        0       0       0      0   0;
4925    0  0  0    0    0  100   1        38.98    3.898 0   0   0      0      0      0      0        0       0       0      0   0;
4926    0  0  0    0    0  100   1       100.12   10.012 0   0   0      0      0      0      0        0       0       0      0   0;
4927    0  0  0    0    0  100   1      2654.59  265.459 0   0   0      0      0      0      0        0       0       0      0   0;
4928    0  0  0    0    0  100   1       425.64   42.564 0   0   0      0      0      0      0        0       0       0      0   0;
4929    0  0  0    0    0  100   1       476.73   47.673 0   0   0      0      0      0      0        0       0       0      0   0;
4930    0  0  0    0    0  100   1       150.08   15.008 0   0   0      0      0      0      0        0       0       0      0   0;
4931    0  0  0    0    0  100   1      1004.57  100.457 0   0   0      0      0      0      0        0       0       0      0   0;
4932    0  0  0    0    0  100   1      3355.43  335.543 0   0   0      0      0      0      0        0       0       0      0   0;
4933    0  0  0    0    0  100   1       858.02   85.802 0   0   0      0      0      0      0        0       0       0      0   0;
4934    0  0  0    0    0  100   1      2358.23  235.823 0   0   0      0      0      0      0        0       0       0      0   0;
4935    0  0  0    0    0  100   1      2076.75  207.675 0   0   0      0      0      0      0        0       0       0      0   0;
4936    0  0  0    0    0  100   1       774.52   77.452 0   0   0      0      0      0      0        0       0       0      0   0;
4937    0  0  0    0    0  100   1      4476.97  447.697 0   0   0      0      0      0      0        0       0       0      0   0;
4938    0  0  0    0    0  100   1       690.11   69.011 0   0   0      0      0      0      0        0       0       0      0   0;
4939    0  0  0    0    0  100   1       750.68   75.068 0   0   0      0      0      0      0        0       0       0      0   0;
4940    0  0  0    0    0  100   1      1270.15  127.015 0   0   0      0      0      0      0        0       0       0      0   0;
4941    0  0  0    0    0  100   1      2400.57  240.057 0   0   0      0      0      0      0        0       0       0      0   0;
5476    0  0  0    0    0  100   1      1025.76  102.576 0   0   0      0      0      0      0        0       0       0      0   0;
5477    0  0  0    0    0  100   1      4418.24  441.824 0   0   0      0      0      0      0        0       0       0      0   0;
5478    0  0  0    0    0  100   1       655.60   65.560 0   0   0      0      0      0      0        0       0       0      0   0;
5479    0  0  0    0    0  100   1       782.18   78.218 0   0   0      0      0      0      0        0       0       0      0   0;
5480    0  0  0    0    0  100   1      3417.36  341.736 0   0   0      0      0      0      0        0       0       0      0   0;
5481    0  0  0    0    0  100   1      3219.97  321.997 0   0   0      0      0      0      0        0       0       0      0   0;
5483    0  0  0    0    0  100   1      1728.26  172.826 0   0   0      0      0      0      0        0       0       0      0   0;
5484    0  0  0    0    0  100   1       121.84   12.184 0   0   0      0      0      0      0        0       0       0      0   0;
5485    0  0  0    0    0  100   1       375.38   37.538 0   0   0      0      0      0      0        0       0       0      0   0;
5486    0  0  0    0    0  100   1       275.42   27.542 0   0   0      0      0      0      0        0       0       0      0   0;
5487    0  0  0    0    0  100   1        52.08    5.208 0   0   0      0      0      0      0        0       0       0      0   0;
5489    0  0  0    0    0  100   1        30.01    3.001 0   0   0      0      0      0      0        0       0       0      0   0;
5490    0  0  0    0    0  100   1        21.13    2.113 0   0   0      0      0      0      0        0       0       0      0   0;
5493    0  0  0    0    0  100   1       323.87   32.387 0   0   0      0      0      0      0        0       0       0      0   0;
4922    0  0  0    0    0  100   1      35.89  3.589    0   0   0      0      0      0      0        0       0       0      0   0;
4924    0  0  0    0    0  100   1      861.44 86.144    0   0   0      0      0      0      0        0       0       0      0   0;
4932    0  0  0    0    0  100   1      96.00  9.6    0   0   0      0      0      0      0        0       0       0      0   0;
4937    0  0  0    0    0  100   1      322.74 32.274    0   0   0      0      0      0      0        0       0       0      0   0;
4938    0  0  0    0    0  100   1      53.26  5.326    0   0   0      0      0      0      0        0       0       0      0   0;
2460    0  0  0    0    0  100   1      501    50.1  0   0   0      0      0      0      0        0       0       0      0   0;
2460    0  0  0    0    0  100   1      501    50.1  0   0   0      0      0      0      0        0       0       0      0   0;
2460    0  0  0    0    0  100   1      888    88.8  0   0   0      0      0      0      0        0       0       0      0   0;
2460    0  0  0    0    0  100   1      888    88.8  0   0   0      0      0      0      0        0       0       0      0   0;
2460    0  0  0    0    0  100   1      1615   161.5 0   0   0      0      0      0      0        0       0       0      0   0;
5484    0  0  0    0    0  100   1      1119   111.9 0   0   0      0      0      0      0        0       0       0      0   0;
5484    0  0  0    0    0  100   1      1166   116.6 0   0   0      0      0      0      0        0       0       0      0   0;
5488    0  0  0    0    0  100   1      1064   106.4 0   0   0      0      0      0      0        0        0      0      0   0;
5488    0  0  0    0    0  100   1      1105   110.5 0   0   0      0      0      0      0        0        0      0      0   0;
5489    0  0  0    0    0  100   1      1398   139.8 0   0   0      0      0      0      0        0        0      0      0   0;
2460    0  0  0    0    0  100   1      1127   112.7 0   0   0      0      0      0      0        0       0       0      0   0;
2460    0  0  0    0    0  100   1      1127   112.7 0   0   0      0      0      0      0        0       0       0      0   0;
2460    0  0  0    0    0  100   1      1127   112.7 0   0   0      0      0      0      0        0       0       0      0   0;
2460    0  0  0    0    0  100   1      1127   112.7 0   0   0      0      0      0      0        0       0       0      0   0;
2460    0  0  0    0    0  100   1      1127   112.7 0   0   0      0      0      0      0        0       0       0      0   0;
5484    0  0  0    0    0  100   1      1127   112.7 0   0   0      0      0      0      0        0       0       0      0   0;
5484    0  0  0    0    0  100   1      1127   112.7 0   0   0      0      0      0      0        0       0       0      0   0;
5488    0  0  0    0    0  100   1      1127   112.7 0   0   0      0      0      0      0        0       0       0      0   0;
5488    0  0  0    0    0  100   1      1127   112.7 0   0   0      0      0      0      0        0       0       0      0   0;
5489    0  0  0    0    0  100   1      1127   112.7 0   0   0      0      0      0      0        0       0       0      0   0;
5489    0  0  0    0    0  100   1      1127   112.7 0   0   0      0      0      0      0        0       0       0      0   0;
1517    0  0  0    0    0  100   1      81    8.1    0   0   0      0      0      0      0        0       0       0      0   0;
1523    0  0  0    0    0  100   1      54    5.4    0   0   0      0      0      0      0        0       0       0      0   0;
1524    0  0  0    0    0  100   1      106   10.6   0   0   0      0      0      0      0        0       0       0      0   0;
1535    0  0  0    0    0  100   1      66    6.6    0   0   0      0      0      0      0        0       0       0      0   0;
1559    0  0  0    0    0  100   1      53    5.3    0   0   0      0      0      0      0        0       0       0      0   0;
2460    0  0  0    0    0  100   1      422   42.2   0   0   0      0      0      0      0        0       0       0      0   0;
2460    0  0  0    0    0  100   1      464   46.4   0   0   0      0      0      0      0        0       0       0      0   0;
2460    0  0  0    0    0  100   1      1157  115.7  0   0   0      0      0      0      0        0       0       0      0   0;
2460    0  0  0    0    0  100   1      1569  156.9  0   0   0      0      0      0      0        0       0       0      0   0;
4931    0  0  0    0    0  100   1      9     0.9    0   0   0      0      0      0      0        0       0       0      0   0;
4931    0  0  0    0    0  100   1      11    1.1    0   0   0      0      0      0      0        0       0       0      0   0;
4934    0  0  0    0    0  100   1      195   19.5   0   0   0      0      0      0      0        0       0       0      0   0;
5480    0  0  0    0    0  100   1      54    5.4    0   0   0      0      0      0      0        0       0       0      0   0;
5488    0  0  0    0    0  100   1      57    5.7    0   0   0      0      0      0      0        0       0       0      0   0;
1544    0  0  0    0    0  100   1      31   3.1   0   0   0      0      0      0      0        0       0       0      0   0;
1547    0  0  0    0    0  100   1      143  14.3  0   0   0      0      0      0      0        0       0       0      0   0;
1547    0  0  0    0    0  100   1      68   6.8   0   0   0      0      0      0      0        0       0       0      0   0;
1555    0  0  0    0    0  100   1      133  13.3  0   0   0      0      0      0      0        0       0       0      0   0;
1569    0  0  0    0    0  100   1      238  23.8  0   0   0      0      0      0      0        0       0       0      0   0;
1571    0  0  0    0    0  100   1      523  52.3  0   0   0      0      0      0      0        0       0       0      0   0;
1571    0  0  0    0    0  100   1      55   5.5   0   0   0      0      0      0      0        0       0       0      0   0;
1571    0  0  0    0    0  100   1      55   5.5   0   0   0      0      0      0      0        0       0       0      0   0;
2457    0  0  0    0    0  100   1      351  35.1  0   0   0      0      0      0      0        0       0       0      0   0;
2457    0  0  0    0    0  100   1      220  22.0  0   0   0      0      0      0      0        0       0       0      0   0;
2457    0  0  0    0    0  100   1      138  13.8  0   0   0      0      0      0      0        0       0       0      0   0;
2457    0  0  0    0    0  100   1      133  13.3  0   0   0      0      0      0      0        0       0       0      0   0;
2457    0  0  0    0    0  100   1      131  13.1  0   0   0      0      0      0      0        0       0       0      0   0;
2457    0  0  0    0    0  100   1      115  11.5  0   0   0      0      0      0      0        0       0       0      0   0;
2457    0  0  0    0    0  100   1      110  11.0  0   0   0      0      0      0      0        0       0       0      0   0;
2457    0  0  0    0    0  100   1      110  11.0  0   0   0      0      0      0      0        0       0       0      0   0;
2457    0  0  0    0    0  100   1      98   9.8   0   0   0      0      0      0      0        0       0       0      0   0;
2460    0  0  0    0    0  100   1      518  51.8  0   0   0      0      0      0      0        0       0       0      0   0;
2460    0  0  0    0    0  100   1      299  29.9  0   0   0      0      0      0      0        0       0       0      0   0;
2460    0  0  0    0    0  100   1      298  29.8  0   0   0      0      0      0      0        0       0       0      0   0;
2460    0  0  0    0    0  100   1      174  17.4  0   0   0      0      0      0      0        0       0       0      0   0;
2460    0  0  0    0    0  100   1      170  17.0  0   0   0      0      0      0      0        0       0       0      0   0;
2460    0  0  0    0    0  100   1      165  16.5  0   0   0      0      0      0      0        0       0       0      0   0;
2460    0  0  0    0    0  100   1      153  15.3  0   0   0      0      0      0      0        0       0       0      0   0;
2460    0  0  0    0    0  100   1      147  14.7  0   0   0      0      0      0      0        0       0       0      0   0;
2460    0  0  0    0    0  100   1      142  14.2  0   0   0      0      0      0      0        0       0       0      0   0;
2460    0  0  0    0    0  100   1      117  11.7  0   0   0      0      0      0      0        0       0       0      0   0;
2460    0  0  0    0    0  100   1      115  11.5  0   0   0      0      0      0      0        0       0       0      0   0;
2460    0  0  0    0    0  100   1      115  11.5  0   0   0      0      0      0      0        0       0       0      0   0;
2460    0  0  0    0    0  100   1      92   9.2   0   0   0      0      0      0      0        0       0       0      0   0;
4917    0  0  0    0    0  100   1      50   5.0   0   0   0      0      0      0      0        0       0       0      0   0;
5476    0  0  0    0    0  100   1      300  30.0  0   0   0      0      0      0      0        0       0       0      0   0;
5479    0  0  0    0    0  100   1      434  43.4  0   0   0      0      0      0      0        0       0       0      0   0;
5480    0  0  0    0    0  100   1      334  33.4  0   0   0      0      0      0      0        0       0       0      0   0;
5488    0  0  0    0    0  100   1      499  49.9  0   0   0      0      0      0      0        0       0       0      0   0;
5488    0  0  0    0    0  100   1      499  49.9  0   0   0      0      0      0      0        0       0       0      0   0;
5484    0  0  0    0    0  100   1      845  84.5  0   0   0      0      0      0      0        0       0       0      0   0;
5484    0  0  0    0    0  100   1      470  47.0  0   0   0      0      0      0      0        0       0       0      0   0;
5484    0  0  0    0    0  100   1      230  23.0  0   0   0      0      0      0      0        0       0       0      0   0;
5484    0  0  0    0    0  100   1      192  19.2  0   0   0      0      0      0      0        0       0       0      0   0;
5497    0  0  0    0    0  100   1      368  36.8  0   0   0      0      0      0      0        0       0       0      0   0;
5497    0  0  0    0    0  100   1      246  24.6  0   0   0      0      0      0      0        0       0       0      0   0;
5497    0  0  0    0    0  100   1      137  13.7  0   0   0      0      0      0      0        0       0       0      0   0;
5497    0  0  0    0    0  100   1      71   7.1   0   0   0      0      0      0      0        0       0       0      0   0;
1603    0  0  0    0    0  100   1      593  59.3 0   0   0      0      0      0      0        0       0        0       0   0;
1517	0	0	0	0	0	100	1	181.9437919	0	0	0	0	0	0	0	0	0	0	0	0	0	;
1519	0	0	0	0	0	100	1	34.87855299	0	0	0	0	0	0	0	0	0	0	0	0	0	;
1520	0	0	0	0	0	100	1	61.48693363	0	0	0	0	0	0	0	0	0	0	0	0	0	;
1522	0	0	0	0	0	100	1	61.12736092	0	0	0	0	0	0	0	0	0	0	0	0	0	;
1523	0	0	0	0	0	100	1	37.39556197	0	0	0	0	0	0	0	0	0	0	0	0	0	;
1524	0	0	0	0	0	100	1	42.07000722	0	0	0	0	0	0	0	0	0	0	0	0	0	;
1525	0	0	0	0	0	100	1	123.6930127	0	0	0	0	0	0	0	0	0	0	0	0	0	;
1526	0	0	0	0	0	100	1	53.57633398	0	0	0	0	0	0	0	0	0	0	0	0	0	;
1527	0	0	0	0	0	100	1	76.5889875	0	0	0	0	0	0	0	0	0	0	0	0	0	;
1528	0	0	0	0	0	100	1	119.7377129	0	0	0	0	0	0	0	0	0	0	0	0	0	;
1529	0	0	0	0	0	100	1	21.57436268	0	0	0	0	0	0	0	0	0	0	0	0	0	;
1530	0	0	0	0	0	100	1	38.47428011	0	0	0	0	0	0	0	0	0	0	0	0	0	;
1531	0	0	0	0	0	100	1	104.2760863	0	0	0	0	0	0	0	0	0	0	0	0	0	;
1532	0	0	0	0	0	100	1	110.3888224	0	0	0	0	0	0	0	0	0	0	0	0	0	;
1533	0	0	0	0	0	100	1	105.3548044	0	0	0	0	0	0	0	0	0	0	0	0	0	;
1534	0	0	0	0	0	100	1	135.5589121	0	0	0	0	0	0	0	0	0	0	0	0	0	;
1535	0	0	0	0	0	100	1	3.595727113	0	0	0	0	0	0	0	0	0	0	0	0	0	;
1536	0	0	0	0	0	100	1	68.31881514	0	0	0	0	0	0	0	0	0	0	0	0	0	;
1537	0	0	0	0	0	100	1	67.95924243	0	0	0	0	0	0	0	0	0	0	0	0	0	;
1540	0	0	0	0	0	100	1	71.91454225	0	0	0	0	0	0	0	0	0	0	0	0	0	;
1541	0	0	0	0	0	100	1	68.31881514	0	0	0	0	0	0	0	0	0	0	0	0	0	;
1542	0	0	0	0	0	100	1	141.6716482	0	0	0	0	0	0	0	0	0	0	0	0	0	;
1544	0	0	0	0	0	100	1	56.81248838	0	0	0	0	0	0	0	0	0	0	0	0	0	;
1546	0	0	0	0	0	100	1	16.54034472	0	0	0	0	0	0	0	0	0	0	0	0	0	;
1547	0	0	0	0	0	100	1	65.80180616	0	0	0	0	0	0	0	0	0	0	0	0	0	;
1548	0	0	0	0	0	100	1	121.8951491	0	0	0	0	0	0	0	0	0	0	0	0	0	;
1549	0	0	0	0	0	100	1	50.34017958	0	0	0	0	0	0	0	0	0	0	0	0	0	;
1550	0	0	0	0	0	100	1	25.5296625	0	0	0	0	0	0	0	0	0	0	0	0	0	;
1551	0	0	0	0	0	100	1	89.89317782	0	0	0	0	0	0	0	0	0	0	0	0	0	;
1552	0	0	0	0	0	100	1	24.81051708	0	0	0	0	0	0	0	0	0	0	0	0	0	;
1553	0	0	0	0	0	100	1	65.44223345	0	0	0	0	0	0	0	0	0	0	0	0	0	;
1554	0	0	0	0	0	100	1	69.75710599	0	0	0	0	0	0	0	0	0	0	0	0	0	;
1555	0	0	0	0	0	100	1	62.56565176	0	0	0	0	0	0	0	0	0	0	0	0	0	;
1556	0	0	0	0	0	100	1	42.42957993	0	0	0	0	0	0	0	0	0	0	0	0	0	;
1557	0	0	0	0	0	100	1	122.2547218	0	0	0	0	0	0	0	0	0	0	0	0	0	;
1558	0	0	0	0	0	100	1	83.78044173	0	0	0	0	0	0	0	0	0	0	0	0	0	;
1560	0	0	0	0	0	100	1	99.96121373	0	0	0	0	0	0	0	0	0	0	0	0	0	;
1561	0	0	0	0	0	100	1	28.40624419	0	0	0	0	0	0	0	0	0	0	0	0	0	;
1562	0	0	0	0	0	100	1	117.2207039	0	0	0	0	0	0	0	0	0	0	0	0	0	;
1563	0	0	0	0	0	100	1	14.74248116	0	0	0	0	0	0	0	0	0	0	0	0	0	;
1564	0	0	0	0	0	100	1	95.28676849	0	0	0	0	0	0	0	0	0	0	0	0	0	;
1565	0	0	0	0	0	100	1	107.152668	0	0	0	0	0	0	0	0	0	0	0	0	0	;
1568	0	0	0	0	0	100	1	60.04864278	0	0	0	0	0	0	0	0	0	0	0	0	0	;
1569	0	0	0	0	0	100	1	89.53360511	0	0	0	0	0	0	0	0	0	0	0	0	0	;
1570	0	0	0	0	0	100	1	101.0399319	0	0	0	0	0	0	0	0	0	0	0	0	0	;
1571	0	0	0	0	0	100	1	193.8096914	0	0	0	0	0	0	0	0	0	0	0	0	0	;
1572	0	0	0	0	0	100	1	115.4228403	0	0	0	0	0	0	0	0	0	0	0	0	0	;
1573	0	0	0	0	0	100	1	72.99326039	0	0	0	0	0	0	0	0	0	0	0	0	0	;
1574	0	0	0	0	0	100	1	211.0691815	0	0	0	0	0	0	0	0	0	0	0	0	0	;
1575	0	0	0	0	0	100	1	101.3995046	0	0	0	0	0	0	0	0	0	0	0	0	0	;
1576	0	0	0	0	0	100	1	37.03598926	0	0	0	0	0	0	0	0	0	0	0	0	0	;
1577	0	0	0	0	0	100	1	22.2935081	0	0	0	0	0	0	0	0	0	0	0	0	0	;
1578	0	0	0	0	0	100	1	35.2381257	0	0	0	0	0	0	0	0	0	0	0	0	0	;
1579	0	0	0	0	0	100	1	53.93590669	0	0	0	0	0	0	0	0	0	0	0	0	0	;
1580	0	0	0	0	0	100	1	35.95727113	0	0	0	0	0	0	0	0	0	0	0	0	0	;
1581	0	0	0	0	0	100	1	134.1206213	0	0	0	0	0	0	0	0	0	0	0	0	0	;
1582	0	0	0	0	0	100	1	187.6969553	0	0	0	0	0	0	0	0	0	0	0	0	0	;
1583	0	0	0	0	0	100	1	45.30616162	0	0	0	0	0	0	0	0	0	0	0	0	0	;
1584	0	0	0	0	0	100	1	24.81051708	0	0	0	0	0	0	0	0	0	0	0	0	0	;
1586	0	0	0	0	0	100	1	222.2159356	0	0	0	0	0	0	0	0	0	0	0	0	0	;
1589	0	0	0	0	0	100	1	110.0292496	0	0	0	0	0	0	0	0	0	0	0	0	0	;
1590	0	0	0	0	0	100	1	74.43155123	0	0	0	0	0	0	0	0	0	0	0	0	0	;
1591	0	0	0	0	0	100	1	60.04864278	0	0	0	0	0	0	0	0	0	0	0	0	0	;
1592	0	0	0	0	0	100	1	48.90188873	0	0	0	0	0	0	0	0	0	0	0	0	0	;
1593	0	0	0	0	0	100	1	43.86787077	0	0	0	0	0	0	0	0	0	0	0	0	0	;
1594	0	0	0	0	0	100	1	108.9505315	0	0	0	0	0	0	0	0	0	0	0	0	0	;
1595	0	0	0	0	0	100	1	37.03598926	0	0	0	0	0	0	0	0	0	0	0	0	0	;
1596	0	0	0	0	0	100	1	77.30813292	0	0	0	0	0	0	0	0	0	0	0	0	0	;
1597	0	0	0	0	0	100	1	270.3986789	0	0	0	0	0	0	0	0	0	0	0	0	0	;
1598	0	0	0	0	0	100	1	104.9952317	0	0	0	0	0	0	0	0	0	0	0	0	0	;
1600	0	0	0	0	0	100	1	139.8737847	0	0	0	0	0	0	0	0	0	0	0	0	0	;
...

1523	0	0	0	0	0	100	1	29.26912473	0	0	0	0	0	0	0	0	0	0	0	0	0	;
1547	0	0	0	0	0	100	1	439.7175482	0	0	0	0	0	0	0	0	0	0	0	0	0	;
1549	0	0	0	0	0	100	1	617.9286131	0	0	0	0	0	0	0	0	0	0	0	0	0	;
1554	0	0	0	0	0	100	1	340.3386596	0	0	0	0	0	0	0	0	0	0	0	0	0	;
1558	0	0	0	0	0	100	1	1235.449083	0	0	0	0	0	0	0	0	0	0	0	0	0	;
1561	0	0	0	0	0	100	1	108.9083711	0	0	0	0	0	0	0	0	0	0	0	0	0	;
1609	0	0	0	0	0	100	1	450.6083853	0	0	0	0	0	0	0	0	0	0	0	0	0	;
1610	0	0	0	0	0	100	1	589.8068971	0	0	0	0	0	0	0	0	0	0	0	0	0	;
2457	0	0	0	0	0	100	1	735.2129035	0	0	0	0	0	0	0	0	0	0	0	0	0	;
2460	0	0	0	0	0	100	1	1393.215584	0	0	0	0	0	0	0	0	0	0	0	0	0	;
4917	0	0	0	0	0	100	1	281.5381597	0	0	0	0	0	0	0	0	0	0	0	0	0	;
5489	0	0	0	0	0	100	1	228.0459094	0	0	0	0	0	0	0	0	0	0	0	0	0	;
5497	0	0	0	0	0	100	1	853.0606239	0	0	0	0	0	0	0	0	0	0	0	0	0	;
1517	0	0	0	0	0	100	1	180.5869999	0	0	0	0	0	0	0	0	0	0	0	0	0	;
1524	0	0	0	0	0	100	1	7.622267299	0	0	0	0	0	0	0	0	0	0	0	0	0	;
1525	0	0	0	0	0	100	1	167.2101851	0	0	0	0	0	0	0	0	0	0	0	0	0	;
1529	0	0	0	0	0	100	1	40.06338056	0	0	0	0	0	0	0	0	0	0	0	0	0	;
1539	0	0	0	0	0	100	1	16.63885179	0	0	0	0	0	0	0	0	0	0	0	0	0	;
1543	0	0	0	0	0	100	1	10.96862855	0	0	0	0	0	0	0	0	0	0	0	0	0	;
1550	0	0	0	0	0	100	1	2.881588857	0	0	0	0	0	0	0	0	0	0	0	0	0	;
1553	0	0	0	0	0	100	1	12.73476366	0	0	0	0	0	0	0	0	0	0	0	0	0	;
1555	0	0	0	0	0	100	1	5.112496359	0	0	0	0	0	0	0	0	0	0	0	0	0	;
1560	0	0	0	0	0	100	1	14.12908085	0	0	0	0	0	0	0	0	0	0	0	0	0	;
1562	0	0	0	0	0	100	1	208.4553641	0	0	0	0	0	0	0	0	0	0	0	0	0	;
1568	0	0	0	0	0	100	1	12.17703678	0	0	0	0	0	0	0	0	0	0	0	0	0	;
1574	0	0	0	0	0	100	1	1.394317189	0	0	0	0	0	0	0	0	0	0	0	0	0	;
1578	0	0	0	0	0	100	1	56.88814131	0	0	0	0	0	0	0	0	0	0	0	0	0	;
1579	0	0	0	0	0	100	1	129.3092098	0	0	0	0	0	0	0	0	0	0	0	0	0	;
1585	0	0	0	0	0	100	1	2.137953023	0	0	0	0	0	0	0	0	0	0	0	0	0	;
1587	0	0	0	0	0	100	1	1.580226147	0	0	0	0	0	0	0	0	0	0	0	0	0	;
1588	0	0	0	0	0	100	1	17.38248762	0	0	0	0	0	0	0	0	0	0	0	0	0	;
1589	0	0	0	0	0	100	1	4.089997087	0	0	0	0	0	0	0	0	0	0	0	0	0	;
1590	0	0	0	0	0	100	1	44.33928661	0	0	0	0	0	0	0	0	0	0	0	0	0	;
1595	0	0	0	0	0	100	1	8.087039695	0	0	0	0	0	0	0	0	0	0	0	0	0	;
1596	0	0	0	0	0	100	1	30.67497815	0	0	0	0	0	0	0	0	0	0	0	0	0	;
1597	0	0	0	0	0	100	1	32.44111326	0	0	0	0	0	0	0	0	0	0	0	0	0	;
1599	0	0	0	0	0	100	1	1.487271668	0	0	0	0	0	0	0	0	0	0	0	0	0	;
1600	0	0	0	0	0	100	1	5.856132193	0	0	0	0	0	0	0	0	0	0	0	0	0	;
1601	0	0	0	0	0	100	1	3.625224691	0	0	0	0	0	0	0	0	0	0	0	0	0	;
1603	0	0	0	0	0	100	1	39.01570986	0	0	0	0	0	0	0	0	0	0	0	0	0	;
1604	0	0	0	0	0	100	1	20.06522221	0	0	0	0	0	0	0	0	0	0	0	0	0	;
1606	0	0	0	0	0	100	1	71.66790351	0	0	0	0	0	0	0	0	0	0	0	0	0	;
1608	0	0	0	0	0	100	1	4.275906046	0	0	0	0	0	0	0	0	0	0	0	0	0	;
2456	0	0	0	0	0	100	1	3308.862364	0	0	0	0	0	0	0	0	0	0	0	0	0	;
2457	0	0	0	0	0	100	1	4212.514715	0	0	0	0	0	0	0	0	0	0	0	0	0	;
2458	0	0	0	0	0	100	1	1551.383107	0	0	0	0	0	0	0	0	0	0	0	0	0	;
2459	0	0	0	0	0	100	1	1839.0118	0	0	0	0	0	0	0	0	0	0	0	0	0	;
2460	0	0	0	0	0	100	1	2615.83575	0	0	0	0	0	0	0	0	0	0	0	0	0	;
2461	0	0	0	0	0	100	1	3884.11975	0	0	0	0	0	0	0	0	0	0	0	0	0	;
4931	0	0	0	0	0	100	1	2778.063714	0	0	0	0	0	0	0	0	0	0	0	0	0	;
4932	0	0	0	0	0	100	1	394.8713459	0	0	0	0	0	0	0	0	0	0	0	0	0	;
4933	0	0	0	0	0	100	1	2372.479841	0	0	0	0	0	0	0	0	0	0	0	0	0	;
4934	0	0	0	0	0	100	1	1519.785217	0	0	0	0	0	0	0	0	0	0	0	0	0	;
4940	0	0	0	0	0	100	1	675.6915833	0	0	0	0	0	0	0	0	0	0	0	0	0	;
5476	0	0	0	0	0	100	1	3376.410366	0	0	0	0	0	0	0	0	0	0	0	0	0	;
5477	0	0	0	0	0	100	1	1266.153887	0	0	0	0	0	0	0	0	0	0	0	0	0	;
5478	0	0	0	0	0	100	1	1904.682844	0	0	0	0	0	0	0	0	0	0	0	0	0	;
5479	0	0	0	0	0	100	1	2669.16216	0	0	0	0	0	0	0	0	0	0	0	0	0	;
5480	0	0	0	0	0	100	1	1107.626283	0	0	0	0	0	0	0	0	0	0	0	0	0	;
5481	0	0	0	0	0	100	1	1205.358014	0	0	0	0	0	0	0	0	0	0	0	0	0	;
5482	0	0	0	0	0	100	1	3687.743978	0	0	0	0	0	0	0	0	0	0	0	0	0	;
5483	0	0	0	0	0	100	1	285.1876322	0	0	0	0	0	0	0	0	0	0	0	0	0	;
5484	0	0	0	0	0	100	1	445.9982794	0	0	0	0	0	0	0	0	0	0	0	0	0	;
5485	0	0	0	0	0	100	1	388.2069531	0	0	0	0	0	0	0	0	0	0	0	0	0	;
5486	0	0	0	0	0	100	1	589.2202621	0	0	0	0	0	0	0	0	0	0	0	0	0	;
5487	0	0	0	0	0	100	1	322.8776276	0	0	0	0	0	0	0	0	0	0	0	0	0	;
5488	0	0	0	0	0	100	1	2834.287657	0	0	0	0	0	0	0	0	0	0	0	0	0	;
5489	0	0	0	0	0	100	1	579.1695967	0	0	0	0	0	0	0	0	0	0	0	0	0	;
5492	0	0	0	0	0	100	1	165.7905507	0	0	0	0	0	0	0	0	0	0	0	0	0	;
5493	0	0	0	0	0	100	1	437.9633715	0	0	0	0	0	0	0	0	0	0	0	0	0	;
5494	0	0	0	0	0	100	1	1073.493816	0	0	0	0	0	0	0	0	0	0	0	0	0	;
5495	0	0	0	0	0	100	1	596.8459826	0	0	0	0	0	0	0	0	0	0	0	0	0	;
5496	0	0	0	0	0	100	1	117.4349734	0	0	0	0	0	0	0	0	0	0	0	0	0	;
5497	0	0	0	0	0	100	1	737.7679508	0	0	0	0	0	0	0	0	0	0	0	0	0	;
];



%% Unified generation cost table (mpc.gencost_all)
% 2 startup shutdown n c1 c0
% costo(P) = c1*P + c0

mpc.gencost = [
2	0	0	2	6.0260	0;
2	0	0	2	6.8720	0;
2	0	0	2	6.2030	0;
2	0	0	2	6.7300	0;
2	0	0	2	7.1200	0;
2	0	0	2	7.1660	0;
2	0	0	2	8.6590	0;
2	0	0	2	8.6140	0;
2	0	0	2	8.3460	0;
2	0	0	2	7.6570	0;
2	0	0	2	5.5070	0;
2	0	0	2	6.4900	0;
2	0	0	2	7.6430	0;
2	0	0	2	8.9690	0;
2	0	0	2	8.4340	0;
2	0	0	2	6.0780	0;
2	0	0	2	7.3080	0;
2	0	0	2	8.9080	0;
2	0	0	2	7.4870	0;
2	0	0	2	7.1910	0;
2	0	0	2	6.3840	0;
2	0	0	2	6.7410	0;
2	0	0	2	6.6050	0;
2	0	0	2	6.9430	0;
2	0	0	2	6.7260	0;
2	0	0	2	7.6040	0;
2	0	0	2	6.8650	0;
2	0	0	2	7.2340	0;
2	0	0	2	5.7660	0;
2	0	0	2	7.7690	0;
2	0	0	2	7.8358	0;
2	0	0	2	7.9754	0;
2	0	0	2	5.5052	0;
2	0	0	2	6.0671	0;
2	0	0	2	5.8794	0;
2	0	0	2	7.911027	0;
2	0	0	2	5.34202	0;
2	0	0	2	5.38447	0;
2	0	0	2	7.784357	0;
2	0	0	2	7.260093307	0;
2	0	0	2	7.399108	0;
2	0	0	2	6.196651	0;
2	0	0	2	7.362056278	0;
2	0	0	2	6.475191519	0;
2	0	0	2	8.6320	0;
2	0	0	2	8.4820	0;
2	0	0	2	2.9150	0;
2	0	0	2	2.6760	0;
2	0	0	2	3.4280	0;
2	0	0	2	12.6940	0;
2	0	0	2	13.0710	0;
2	0	0	2	10.9540	0;
2	0	0	2	10.9490	0;
2	0	0	2	10.3650	0;
2	0	0	2	10.2110	0;
2	0	0	2	10.4180	0;
2	0	0	2	10.9580	0;
2	0	0	2	10.7290	0;
2	0	0	2	10.6490	0;
2	0	0	2	10.5320	0;
2	0	0	2	10.8760	0;
2	0	0	2	11.0240	0;
2	0	0	2	10.4470	0;
2	0	0	2	10.7930	0;
2	0	0	2	11.1820	0;
2	0	0	2	10.3680	0;
2	0	0	2	10.6150	0;
2	0	0	2	10.9020	0;
2	0	0	2	11.0560	0;
2	0	0	2	10.7210	0;
2	0	0	2	67.0500	0;
2	0	0	2	68.3080	0;
2	0	0	2	70.8810	0;
2	0	0	2	67.1170	0;
2	0	0	2	68.4150	0;
2	0	0	2	62.0260	0;
2	0	0	2	61.2560	0;
2	0	0	2	57.1070	0;
2	0	0	2	56.1760	0;
2	0	0	2	60.8490	0;
2	0	0	2	58.6800	0;
2	0	0	2	58.8910	0;
2	0	0	2	58.2667	0;
2	0	0	2	58.3030	0;
2	0	0	2	31.9780	0;
2	0	0	2	36.6670	0;
2	0	0	2	41.1604	0;
2	0	0	2	37.0426	0;
2	0	0	2	37.3583	0;
2	0	0	2	36.0357	0;
2	0	0	2	38.5052	0;
2	0	0	2	37.6739	0;
2	0	0	2	29.0540	0;
2	0	0	2	42.0553	0;
2	0	0	2	39.1035	0;
2	0	0	2	43.5000	0;
2	0	0	2	40.3591	0;
2	0	0	2	35.6900	0;
2	0	0	2	40.8867	0;
2	0	0	2	38.4133	0;
2	0	0	2	40.0835	0;
2	0	0	2	28.5570	0;
2	0	0	2	36.3852	0;
2	0	0	2	38.6909	0;
2	0	0	2	40.7448	0;
2	0	0	2	39.3822	0;
2	0	0	2	36.0076	0;
2	0	0	2	43.0311	0;
2	0	0	2	42.8487	0;
2	0	0	2	31.0480	0;
2	0	0	2	37.9357	0;
2	0	0	2	39.4662	0;
2	0	0	2	39.8078	0;
2	0	0	2	42.3630	0;
2	0	0	2	39.6604	0;
2	0	0	2	36.4760	0;
2	0	0	2	36.3232	0;
2	0	0	2	44.4812	0;
2	0	0	2	38.7810	0;
2	0	0	2	40.0814	0;
2	0	0	2	38.2233	0;
2	0	0	2	43.5500	0;
2	0	0	2	41.8617	0;
2	0	0	2	36.3413	0;
2	0	0	2	29.4670	0;
2	0	0	2	38.0964	0;
2	0	0	2	40.5490	0;
2	0	0	2	41.8995	0;
2	0	0	2	118.1340 0;
2	0	0	2	0	0;
2	0	0	2	0	0;
2	0	0	2	0	0;
2	0	0	2	0	0;
2	0	0	2	0	0;
2	0	0	2	0	0;
2	0	0	2	0	0;
2	0	0	2	0	0;
2	0	0	2	0	0;
2	0	0	2	0	0;
2	0	0	2	0	0;
2	0	0	2	0	0;
2	0	0	2	0	0;
2	0	0	2	0	0;
2	0	0	2	0	0;
2	0	0	2	0	0;
2	0	0	2	0	0;
2	0	0	2	0	0;
2	0	0	2	0	0;
2	0	0	2	0	0;
2	0	0	2	0	0;
2	0	0	2	0	0;
2	0	0	2	0	0;
2	0	0	2	0	0;
2	0	0	2	0	0;
2	0	0	2	0	0;
2	0	0	2	0	0;
2	0	0	2	0	0;
2	0	0	2	0	0;
2	0	0	2	0	0;
2	0	0	2	0	0;
2	0	0	2	0	0;
2	0	0	2	0	0;
2	0	0	2	0	0;
2	0	0	2	0	0;
2	0	0	2	0	0;
2	0	0	2	0	0;
2	0	0	2	0	0;
2	0	0	2	0	0;
2	0	0	2	0	0;
2	0	0	2	0	0;
2	0	0	2	0	0;
2	0	0	2	0	0;
2	0	0	2	0	0;
2	0	0	2	0	0;
2	0	0	2	0	0;
2	0	0	2	0	0;
2	0	0	2	0	0;
2	0	0	2	0	0;
2	0	0	2	0	0;
2	0	0	2	0	0;
2	0	0	2	0	0;
2	0	0	2	0	0;
2	0	0	2	0	0;
2	0	0	2	0	0;
2	0	0	2	0	0;
2	0	0	2	0	0;
2	0	0	2	0	0;
2	0	0	2	0	0;
2	0	0	2	0	0;
2	0	0	2	0	0;
2	0	0	2	0	0;
2	0	0	2	0	0;
2	0	0	2	0	0;
2	0	0	2	0	0;
2	0	0	2	0	0;
2	0	0	2	0	0;
2	0	0	2	0	0;
2	0	0	2	0	0;
2	0	0	2	0	0;
2	0	0	2	0	0;
...

2	0	0	2	0	0;
2	0	0	2	0	0;
2	0	0	2	0	0;
2	0	0	2	0	0;
2	0	0	2	0	0;
2	0	0	2	0	0;
2	0	0	2	0	0;
2	0	0	2	0	0;
2	0	0	2	0	0;
2	0	0	2	0	0;
2	0	0	2	0	0;
2	0	0	2	0	0;
2	0	0	2	0	0;
2	0	0	2	0	0;
2	0	0	2	0	0;
2	0	0	2	0	0;
2	0	0	2	0	0;
2	0	0	2	0	0;
2	0	0	2	0	0;
2	0	0	2	0	0;
2	0	0	2	0	0;
2	0	0	2	0	0;
2	0	0	2	0	0;
2	0	0	2	0	0;
2	0	0	2	0	0;
2	0	0	2	0	0;
2	0	0	2	0	0;
2	0	0	2	0	0;
2	0	0	2	0	0;
2	0	0	2	0	0;
2	0	0	2	0	0;
2	0	0	2	0	0;
2	0	0	2	0	0;
2	0	0	2	0	0;
2	0	0	2	0	0;
2	0	0	2	0	0;
2	0	0	2	0	0;
2	0	0	2	0	0;
2	0	0	2	0	0;
2	0	0	2	0	0;
2	0	0	2	0	0;
2	0	0	2	0	0;
2	0	0	2	0	0;
2	0	0	2	0	0;
2	0	0	2	0	0;
2	0	0	2	0	0;
2	0	0	2	0	0;
2	0	0	2	0	0;
2	0	0	2	0	0;
2	0	0	2	0	0;
2	0	0	2	0	0;
2	0	0	2	0	0;
2	0	0	2	0	0;
2	0	0	2	0	0;
2	0	0	2	0	0;
2	0	0	2	0	0;
2	0	0	2	0	0;
2	0	0	2	0	0;
2	0	0	2	0	0;
2	0	0	2	0	0;
2	0	0	2	0	0;
2	0	0	2	0	0;
2	0	0	2	0	0;
2	0	0	2	0	0;
2	0	0	2	0	0;
2	0	0	2	0	0;
2	0	0	2	0	0;
2	0	0	2	0	0;
2	0	0	2	0	0;
2	0	0	2	0	0;
2	0	0	2	0	0;
2	0	0	2	0	0;
2	0	0	2	0	0;
2	0	0	2	0	0;
];





%% Unified extra operational data with technology type
% Columns:
% Bus  DT[s]  IC[s]  upramp_MWph  downramp_MWph  MUT[h]  MDT[h]  reservecost_g  MaxFRdeliverable[MW]  Ppump  Storage      type  n_pumping  n_generating  E_Pump_min  E_Pump_ini  E_pump_end 
%
% type:
% 1 = mpc.genextra_reservoir
% 2 = mpc.gen_extra_pump
% 3 = mpc.gen_extra_nuclear5
% 4 = mpc.gen_extra_gas
% 5 = mpc.gen_extra_biomass
% 6 = mpc.gen_extra_oil
% 7 = mpc.gen_extra_solar
% 8 = mpc.gen_extra_wind

mpc.genextra = [
12457	15.28	4	2042.84	2042.84	0	0	15.0000002	204.284	0	3490352	1	0	0.9	349035.2	3490352	3455448.48;
2458	15.28	4	894.69	894.69	0	0	15.0000002	89.469	0	1528653	1	0	0.9	152865.3	1528653	1513366.47;
2460	15.28	4	299.08	299.08	0	0	15.0000002	29.908	0	510995	1	0	0.9	51099.5	510995	505885.05;
4914	15.28	4	1730.37	1730.37	0	0	15.0000002	173.037	0	3706323	1	0	0.9	370632.3	3706323	3669259.77;
4915	15.28	4	150.65	150.65	0	0	15.0000002	15.065	0	322671	1	0	0.9	32267.1	322671	319444.29;
4916	15.28	4	383.08	383.08	0	0	15.0000002	38.308	0	820529	1	0	0.9	82052.9	820529	812323.71;
4918	15.28	4	232.33	232.33	0	0	15.0000002	23.233	0	497632	1	0	0.9	49763.2	497632	492655.68;
4919	15.28	4	1031.58	1031.58	0	0	15.0000002	103.158	0	2209561	1	0	0.9	220956.1	2209561	2187465.39;
4920	15.28	4	517.79	517.79	0	0	15.0000002	51.779	0	1980268	1	0	0.9	198026.8	1980268	1960465.32;
4921	15.28	4	179.49	179.49	0	0	15.0000002	17.949	0	686433	1	0	0.9	68643.3	686433	679568.67;
4922	15.28	4	828.33	828.33	0	0	15.0000002	82.833	0	3167895	1	0	0.9	316789.5	3167895	3136216.05;
4923	15.28	4	1199.29	1199.29	0	0	15.0000002	119.929	0	4586614	1	0	0.9	458661.4	4586614	4540747.86;
4924	15.28	4	1876.63	1876.63	0	0	15.0000002	187.663	0	7177080	1	0	0.9	717708	7177080	7105309.20;
4925	15.28	4	38.98	38.98	0	0	15.0000002	3.898	0	149066	1	0	0.9	14906.6	149066	147575.34;
4926	15.28	4	100.12	100.12	0	0	15.0000002	10.012	0	382913	1	0	0.9	38291.3	382913	379083.87;
4927	15.28	4	2654.59	2654.59	0	0	15.0000002	265.459	0	10152364	1	0	0.9	1015236.4	10152364	10050840.36;
4928	15.28	4	425.64	425.64	0	0	15.0000002	42.564	0	1627857	1	0	0.9	162785.7	1627857	1611578.43;
4929	15.28	4	476.73	476.73	0	0	15.0000002	47.673	0	1823222	1	0	0.9	182322.2	1823222	1804990.78;
4930	15.28	4	150.08	150.08	0	0	15.0000002	15.008	0	573985	1	0	0.9	57398.5	573985	568245.15;
4931	15.28	4	1004.57	1004.57	0	0	15.0000002	100.457	0	4653316	1	0	0.9	465331.6	4653316	4606782.84;
4932	15.28	4	3355.43	3355.43	0	0	15.0000002	335.543	0	6524384	1	0	0.9	652438.4	6524384	6459140.16;
4933	15.28	4	858.02	858.02	0	0	15.0000002	85.802	0	3743390	1	0	0.9	374339	3743390	3705956.10;
4934	15.28	4	2358.23	2358.23	0	0	15.0000002	235.823	0	10288543	1	0	0.9	1028854.3	10288543	10185657.57;
4935	15.28	4	2076.75	2076.75	0	0	15.0000002	207.675	0	9060467	1	0	0.9	906046.7	9060467	8969862.33;
4936	15.28	4	774.52	774.52	0	0	15.0000002	77.452	0	1342375	1	0	0.9	134237.5	1342375	1328951.25;
4937	15.28	4	4476.97	4476.97	0	0	15.0000002	447.697	0	7759368	1	0	0.9	775936.8	7759368	7681774.32;
4938	15.28	4	690.11	690.11	0	0	15.0000002	69.011	0	1196078	1	0	0.9	119607.8	1196078	1184117.22;
4939	15.28	4	750.68	750.68	0	0	15.0000002	75.068	0	1301067	1	0	0.9	130106.7	1301067	1288056.33;
4940	15.28	4	1270.15	1270.15	0	0	15.0000002	127.015	0	2201386	1	0	0.9	220138.6	2201386	2179372.14;
4941	15.28	4	2400.57	2400.57	0	0	15.0000002	240.057	0	4160615	1	0	0.9	416061.5	4160614	4119008.85;
5476	15.28	4	1025.76	1025.76	0	0	15.0000002	102.576	0	2718217	1	0	0.9	271821.7	2718217	2691034.83;
5477	15.28	4	4418.24	4418.24	0	0	15.0000002	441.824	0	11708090	1	0	0.9	1170809	11708090	11591009.10;
5478	15.28	4	655.60	655.60	0	0	15.0000002	65.560	0	1201458	1	0	0.9	120145.8	1201458	1189443.42;
5479	15.28	4	782.18	782.18	0	0	15.0000002	78.218	0	1433439	1	0	0.9	143343.9	1433439	1419104.61;
5480	15.28	4	3417.36	3417.36	0	0	15.0000002	341.736	0	6262722	1	0	0.9	626272.2	6262722	6200094.78;
5481	15.28	4	3219.97	3219.97	0	0	15.0000002	321.997	0	5900981	1	0	0.9	590098.1	5900981	5841971.19;
5483	15.28	4	1728.26	1728.26	0	0	15.0000002	172.826	0	1763109	1	0	0.9	176310.9	1763109	1745477.91;
5484	15.28	4	121.84	121.84	0	0	15.0000002	12.184	0	124296	1	0	0.9	12429.6	124296	123053.04;
5485	15.28	4	375.38	375.38	0	0	15.0000002	37.538	0	382950	1	0	0.9	38295	382950	379120.50;
5486	15.28	4	275.42	275.42	0	0	15.0000002	27.542	0	280978	1	0	0.9	28097.8	280978	278168.22;
5487	15.28	4	52.08	52.08	0	0	15.0000002	5.208	0	53132	1	0	0.9	5313.2	53132	52600.68;
5489	15.28	4	30.01	30.01	0	0	15.0000002	3.001	0	30612	1	0	0.9	3061.2	30612	30305.88;
5490	15.28	4	21.13	21.13	0	0	15.0000002	2.113	0	64369	1	0	0.9	6436.9	64369	63725.31;
5493	15.28	4	323.87	323.87	0	0	15.0000002	32.387	0	146981	1	0	0.9	14698.1	146981	145511.19;
4922	15.28	4	35.89	35.89	0	0	15.0000002	3.589	-21.39	126069	2	0.7	0.9	12606.9	18910.35	18910.35;
4924	15.28	4	861.44	861.44	0	0	15.0000002	86.144	-515.61	4076931	2	0.7	0.9	407693.1	611539.65	611539.65;
4932	15.28	4	96.00	96.00	0	0	15.0000002	9.600	-84.00	182000	2	0.7	0.9	18200	27300	27300;
4937	15.28	4	322.74	322.74	0	0	15.0000002	32.274	-299.14	563362	2	0.7	0.9	56336.2	84504.3	84504.3;
4938	15.28	4	53.26	53.26	0	0	15.0000002	5.326	-49.86	74638	2	0.7	0.9	7463.8	11195.7	11195.7;
2460	15.28	5	501 	501	    24  0	15.0000002	50.1	0	0	3	0	0	0	0	0;
2460	15.28	5	501 	501	    24	0	15.0000002	50.1	0	0	3	0	0	0	0	0;
2460	15.28	5	888 	888	    24	0	15.0000002	88.8	0	0	3	0	0	0	0	0;
2460	15.28	5	888 	888	    24	0	15.0000002	88.8	0	0	3	0	0	0	0	0;
2460	15.28	5	1615	1615	24	0	15.0000002	161.5	0	0	3	0	0	0	0	0;
5484	15.28	5	1119	1119	24	0	15.0000002	111.9	0	0	3	0	0	0	0	0;
5484	15.28	5	1166	1166	24	0	15.0000002	116.6	0	0	3	0	0	0	0	0;
5488	15.28	5	1064	1064	24	0	15.0000002	106.4	0	0	3	0	0	0	0	0;
5488	15.28	5	1105	1105	24	0	15.0000002	110.5	0	0	3	0	0	0	0	0;
5489	15.28	5	1398	1398	24	0	15.0000002	139.8	0	0	3	0	0	0	0	0;
2460	15.28	5	1127	1127	24	0	15.0000002	112.7	0	0	3	0	0	0	0	0;
2460	15.28	5	1127	1127	24	0	15.0000002	112.7	0	0	3	0	0	0	0	0;
2460	15.28	5	1127	1127	24	0	15.0000002	112.7	0	0	3	0	0	0	0	0;
2460	15.28	5	1127	1127	24	0	15.0000002	112.7	0	0	3	0	0	0	0	0;
2460	15.28	5	1127	1127	24	0	15.0000002	112.7	0	0	3	0	0	0	0	0;
5484	15.28	5	1127	1127	24	0	15.0000002	112.7	0	0	3	0	0	0	0	0;
5484	15.28	5	1127	1127	24	0	15.0000002	112.7	0	0	3	0	0	0	0	0;
5488	15.28	5	1127	1127	24	0	15.0000002	112.7	0	0	3	0	0	0	0	0;
5488	15.28	5	1127	1127	24	0	15.0000002	112.7	0	0	3	0	0	0	0	0;
5489	15.28	5	1127	1127	24	0	15.0000002	112.7	0	0	3	0	0	0	0	0;
5489	15.28	5	1127	1127	24	0	15.0000002	112.7	0	0	3	0	0	0	0	0;
1517	15.28	4	583.2	583.2	0	0	15.0000002	16.2	0	0	4	0	0	0	0	0;
1523	15.28	4	388.8	388.8	0	0	15.0000002	10.8	0	0	4	0	0	0	0	0;
1524	15.28	4	763.2	763.2	0	0	15.0000002	21.2	0	0	4	0	0	0	0	0;
1535	15.28	4	475.2	475.2	0	0	15.0000002	13.2	0	0	4	0	0	0	0	0;
1559	15.28	4	381.6	381.6	0	0	15.0000002	10.6	0	0	4	0	0	0	0	0;
2460	15.28	4	3038.4	3038.4	0	0	15.0000002	84.4	0	0	4	0	0	0	0	0;
2460	15.28	4	3340.8	3340.8	0	0	15.0000002	92.8	0	0	4	0	0	0	0	0;
2460	15.28	4	8330.4	8330.4	0	0	15.0000002	231.4	0	0	4	0	0	0	0	0;
2460	15.28	4	11296.8	11296.8	0	0	15.0000002	313.8	0	0	4	0	0	0	0	0;
4931	15.28	4	64.8	64.8	0	0	15.0000002	1.8	    0	0	4	0	0	0	0	0;
4931	15.28	4	79.2	79.2	0	0	15.0000002	2.2 	0	0	4	0	0	0	0	0;
4934	15.28	4	1404.0	1404.0	0	0	15.0000002	39.0	0	0	4	0	0	0	0	0;
5480	15.28	4	388.8	388.8	0	0	15.0000002	10.8	0	0	4	0	0	0	0	0;
5488	15.28	4	410.4	410.4	0	0	15.0000002	11.4	0	0	4	0	0	0	0	0;
1544	15.28	4	18.6	18.6	1	1	15.0000002	3.1	    0	0	5	0	0	0	0	0;
1547	15.28	4	85.8	85.8	1	1	15.0000002	14.3	0	0	5	0	0	0	0	0;
1547	15.28	4	40.8	40.8	1	1	15.0000002	6.8	    0	0	5	0	0	0	0	0;
1555	15.28	4	79.8	79.8	1	1	15.0000002	13.3	0	0	5	0	0	0	0	0;
1569	15.28	4	142.8	142.8	1	1	15.0000002	23.8	0	0	5	0	0	0	0	0;
1571	15.28	4	313.8	313.8	1	1	15.0000002	52.3	0	0	5	0	0	0	0	0;
1571	15.28	4	33.0	33.0	1	1	15.0000002	5.5	    0	0	5	0	0	0	0	0;
1571	15.28	4	33.0	33.0	1	1	15.0000002	5.5	    0	0	5	0	0	0	0	0;
2457	15.28	4	210.6	210.6	1	1	15.0000002	35.1	0	0	5	0	0	0	0	0;
2457	15.28	4	132.0	132.0	1	1	15.0000002	22.0	0	0	5	0	0	0	0	0;
2457	15.28	4	82.8	82.8	1	1	15.0000002	13.8	0	0	5	0	0	0	0	0;
2457	15.28	4	79.8	79.8	1	1	15.0000002	13.3	0	0	5	0	0	0	0	0;
2457	15.28	4	78.6	78.6	1	1	15.0000002	13.1	0	0	5	0	0	0	0	0;
2457	15.28	4	69.0	69.0	1	1	15.0000002	11.5	0	0	5	0	0	0	0	0;
2457	15.28	4	66.0	66.0	1	1	15.0000002	11.0	0	0	5	0	0	0	0	0;
2457	15.28	4	66.0	66.0	1	1	15.0000002	11.0	0	0	5	0	0	0	0	0;
2457	15.28	4	58.8	58.8	1	1	15.0000002	9.8	    0	0	5	0	0	0	0	0;
2460	15.28	4	310.8	310.8	1	1	15.0000002	51.8	0	0	5	0	0	0	0	0;
2460	15.28	4	179.4	179.4	1	1	15.0000002	29.9	0	0	5	0	0	0	0	0;
2460	15.28	4	178.8	178.8	1	1	15.0000002	29.8	0	0	5	0	0	0	0	0;
2460	15.28	4	104.4	104.4	1	1	15.0000002	17.4	0	0	5	0	0	0	0	0;
2460	15.28	4	102.0	102.0	1	1	15.0000002	17.0	0	0	5	0	0	0	0	0;
2460	15.28	4	99.0	99.0	1	1	15.0000002	16.5	0	0	5	0	0	0	0	0;
2460	15.28	4	91.8	91.8	1	1	15.0000002	15.3	0	0	5	0	0	0	0	0;
2460	15.28	4	88.2	88.2	1	1	15.0000002	14.7	0	0	5	0	0	0	0	0;
2460	15.28	4	85.2	85.2	1	1	15.0000002	14.2	0	0	5	0	0	0	0	0;
2460	15.28	4	70.2	70.2	1	1	15.0000002	11.7	0	0	5	0	0	0	0	0;
2460	15.28	4	69.0	69.0	1	1	15.0000002	11.5	0	0	5	0	0	0	0	0;
2460	15.28	4	69.0	69.0	1	1	15.0000002	11.5	0	0	5	0	0	0	0	0;
2460	15.28	4	55.2	55.2	1	1	15.0000002	9.2	    0	0	5	0	0	0	0	0;
4917	15.28	4	30.0	30.0	1	1	15.0000002	5.0	    0	0	5	0	0	0	0	0;
5476	15.28	4	180.0	180.0	1	1	15.0000002	30.0	0	0	5	0	0	0	0	0;
5479	15.28	4	260.4	260.4	1	1	15.0000002	43.4	0	0	5	0	0	0	0	0;
5480	15.28	4	200.4	200.4	1	1	15.0000002	33.4	0	0	5	0	0	0	0	0;
5488	15.28	4	299.4	299.4	1	1	15.0000002	49.9	0	0	5	0	0	0	0	0;
5488	15.28	4	299.4	299.4	1	1	15.0000002	49.9	0	0	5	0	0	0	0	0;
5484	15.28	4	507.0	507.0	1	1	15.0000002	84.5	0	0	5	0	0	0	0	0;
5484	15.28	4	282.0	282.0	1	1	15.0000002	47.0	0	0	5	0	0	0	0	0;
5484	15.28	4	138.0	138.0	1	1	15.0000002	23.0	0	0	5	0	0	0	0	0;
5484	15.28	4	115.2	115.2	1	1	15.0000002	19.2	0	0	5	0	0	0	0	0;
5497	15.28	4	220.8	220.8	1	1	15.0000002	36.8	0	0	5	0	0	0	0	0;
5497	15.28	4	147.6	147.6	1	1	15.0000002	24.6	0	0	5	0	0	0	0	0;
5497	15.28	4	82.2	82.2	1	1	15.0000002	13.7	0	0	5	0	0	0	0	0;
5497	15.28	4	42.6	42.6	1	1	15.0000002	7.1	    0	0	5	0	0	0	0	0;
1603	15.28	4	120	    120	    8	8	15.0000002	59.3	0	0	6	0	0	0	0	0;
1517	0.03	0	0	0	0	0	0	0	0	0	7	0	0	0	0	0;
1519	0.03	0	0	0	0	0	0	0	0	0	7	0	0	0	0	0;
1520	0.03	0	0	0	0	0	0	0	0	0	7	0	0	0	0	0;
1522	0.03	0	0	0	0	0	0	0	0	0	7	0	0	0	0	0;
1523	0.03	0	0	0	0	0	0	0	0	0	7	0	0	0	0	0;
1524	0.03	0	0	0	0	0	0	0	0	0	7	0	0	0	0	0;
1525	0.03	0	0	0	0	0	0	0	0	0	7	0	0	0	0	0;
1526	0.03	0	0	0	0	0	0	0	0	0	7	0	0	0	0	0;
1527	0.03	0	0	0	0	0	0	0	0	0	7	0	0	0	0	0;
1528	0.03	0	0	0	0	0	0	0	0	0	7	0	0	0	0	0;
1529	0.03	0	0	0	0	0	0	0	0	0	7	0	0	0	0	0;
1530	0.03	0	0	0	0	0	0	0	0	0	7	0	0	0	0	0;
1531	0.03	0	0	0	0	0	0	0	0	0	7	0	0	0	0	0;
1532	0.03	0	0	0	0	0	0	0	0	0	7	0	0	0	0	0;
1533	0.03	0	0	0	0	0	0	0	0	0	7	0	0	0	0	0;
1534	0.03	0	0	0	0	0	0	0	0	0	7	0	0	0	0	0;
1535	0.03	0	0	0	0	0	0	0	0	0	7	0	0	0	0	0;
1536	0.03	0	0	0	0	0	0	0	0	0	7	0	0	0	0	0;
1537	0.03	0	0	0	0	0	0	0	0	0	7	0	0	0	0	0;
1540	0.03	0	0	0	0	0	0	0	0	0	7	0	0	0	0	0;
1541	0.03	0	0	0	0	0	0	0	0	0	7	0	0	0	0	0;
1542	0.03	0	0	0	0	0	0	0	0	0	7	0	0	0	0	0;
1544	0.03	0	0	0	0	0	0	0	0	0	7	0	0	0	0	0;
1546	0.03	0	0	0	0	0	0	0	0	0	7	0	0	0	0	0;
1547	0.03	0	0	0	0	0	0	0	0	0	7	0	0	0	0	0;
1548	0.03	0	0	0	0	0	0	0	0	0	7	0	0	0	0	0;
1549	0.03	0	0	0	0	0	0	0	0	0	7	0	0	0	0	0;
1550	0.03	0	0	0	0	0	0	0	0	0	7	0	0	0	0	0;
1551	0.03	0	0	0	0	0	0	0	0	0	7	0	0	0	0	0;
1552	0.03	0	0	0	0	0	0	0	0	0	7	0	0	0	0	0;
1553	0.03	0	0	0	0	0	0	0	0	0	7	0	0	0	0	0;
1554	0.03	0	0	0	0	0	0	0	0	0	7	0	0	0	0	0;
1555	0.03	0	0	0	0	0	0	0	0	0	7	0	0	0	0	0;
1556	0.03	0	0	0	0	0	0	0	0	0	7	0	0	0	0	0;
1557	0.03	0	0	0	0	0	0	0	0	0	7	0	0	0	0	0;
1558	0.03	0	0	0	0	0	0	0	0	0	7	0	0	0	0	0;
1560	0.03	0	0	0	0	0	0	0	0	0	7	0	0	0	0	0;
1561	0.03	0	0	0	0	0	0	0	0	0	7	0	0	0	0	0;
1562	0.03	0	0	0	0	0	0	0	0	0	7	0	0	0	0	0;
1563	0.03	0	0	0	0	0	0	0	0	0	7	0	0	0	0	0;
1564	0.03	0	0	0	0	0	0	0	0	0	7	0	0	0	0	0;
1565	0.03	0	0	0	0	0	0	0	0	0	7	0	0	0	0	0;
1568	0.03	0	0	0	0	0	0	0	0	0	7	0	0	0	0	0;
1569	0.03	0	0	0	0	0	0	0	0	0	7	0	0	0	0	0;
1570	0.03	0	0	0	0	0	0	0	0	0	7	0	0	0	0	0;
1571	0.03	0	0	0	0	0	0	0	0	0	7	0	0	0	0	0;
1572	0.03	0	0	0	0	0	0	0	0	0	7	0	0	0	0	0;
1573	0.03	0	0	0	0	0	0	0	0	0	7	0	0	0	0	0;
1574	0.03	0	0	0	0	0	0	0	0	0	7	0	0	0	0	0;
1575	0.03	0	0	0	0	0	0	0	0	0	7	0	0	0	0	0;
1576	0.03	0	0	0	0	0	0	0	0	0	7	0	0	0	0	0;
1577	0.03	0	0	0	0	0	0	0	0	0	7	0	0	0	0	0;
1578	0.03	0	0	0	0	0	0	0	0	0	7	0	0	0	0	0;
1579	0.03	0	0	0	0	0	0	0	0	0	7	0	0	0	0	0;
1580	0.03	0	0	0	0	0	0	0	0	0	7	0	0	0	0	0;
1581	0.03	0	0	0	0	0	0	0	0	0	7	0	0	0	0	0;
1582	0.03	0	0	0	0	0	0	0	0	0	7	0	0	0	0	0;
1583	0.03	0	0	0	0	0	0	0	0	0	7	0	0	0	0	0;
1584	0.03	0	0	0	0	0	0	0	0	0	7	0	0	0	0	0;
1586	0.03	0	0	0	0	0	0	0	0	0	7	0	0	0	0	0;
1589	0.03	0	0	0	0	0	0	0	0	0	7	0	0	0	0	0;
1590	0.03	0	0	0	0	0	0	0	0	0	7	0	0	0	0	0;
1591	0.03	0	0	0	0	0	0	0	0	0	7	0	0	0	0	0;
1592	0.03	0	0	0	0	0	0	0	0	0	7	0	0	0	0	0;
1593	0.03	0	0	0	0	0	0	0	0	0	7	0	0	0	0	0;
1594	0.03	0	0	0	0	0	0	0	0	0	7	0	0	0	0	0;
1595	0.03	0	0	0	0	0	0	0	0	0	7	0	0	0	0	0;
1596	0.03	0	0	0	0	0	0	0	0	0	7	0	0	0	0	0;
1597	0.03	0	0	0	0	0	0	0	0	0	7	0	0	0	0	0;
1598	0.03	0	0	0	0	0	0	0	0	0	7	0	0	0	0	0;
1600	0.03	0	0	0	0	0	0	0	0	0	7	0	0	0	0	0;
...

1523	0.03	0	0	0	0	0	0	0	0	0	8	0	0	0	0	0;
1547	0.03	0	0	0	0	0	0	0	0	0	8	0	0	0	0	0;
1549	0.03	0	0	0	0	0	0	0	0	0	8	0	0	0	0	0;
1554	0.03	0	0	0	0	0	0	0	0	0	8	0	0	0	0	0;
1558	0.03	0	0	0	0	0	0	0	0	0	8	0	0	0	0	0;
1561	0.03	0	0	0	0	0	0	0	0	0	8	0	0	0	0	0;
1609	0.03	0	0	0	0	0	0	0	0	0	8	0	0	0	0	0;
1610	0.03	0	0	0	0	0	0	0	0	0	8	0	0	0	0	0;
2457	0.03	0	0	0	0	0	0	0	0	0	8	0	0	0	0	0;
2460	0.03	0	0	0	0	0	0	0	0	0	8	0	0	0	0	0;
4917	0.03	0	0	0	0	0	0	0	0	0	8	0	0	0	0	0;
5489	0.03	0	0	0	0	0	0	0	0	0	8	0	0	0	0	0;
5497	0.03	0	0	0	0	0	0	0	0	0	8	0	0	0	0	0;
1517	0.03	0	0	0	0	0	0	0	0	0	8	0	0	0	0	0;
1524	0.03	0	0	0	0	0	0	0	0	0	8	0	0	0	0	0;
1525	0.03	0	0	0	0	0	0	0	0	0	8	0	0	0	0	0;
1529	0.03	0	0	0	0	0	0	0	0	0	8	0	0	0	0	0;
1539	0.03	0	0	0	0	0	0	0	0	0	8	0	0	0	0	0;
1543	0.03	0	0	0	0	0	0	0	0	0	8	0	0	0	0	0;
1550	0.03	0	0	0	0	0	0	0	0	0	8	0	0	0	0	0;
1553	0.03	0	0	0	0	0	0	0	0	0	8	0	0	0	0	0;
1555	0.03	0	0	0	0	0	0	0	0	0	8	0	0	0	0	0;
1560	0.03	0	0	0	0	0	0	0	0	0	8	0	0	0	0	0;
1562	0.03	0	0	0	0	0	0	0	0	0	8	0	0	0	0	0;
1568	0.03	0	0	0	0	0	0	0	0	0	8	0	0	0	0	0;
1574	0.03	0	0	0	0	0	0	0	0	0	8	0	0	0	0	0;
1578	0.03	0	0	0	0	0	0	0	0	0	8	0	0	0	0	0;
1579	0.03	0	0	0	0	0	0	0	0	0	8	0	0	0	0	0;
1585	0.03	0	0	0	0	0	0	0	0	0	8	0	0	0	0	0;
1587	0.03	0	0	0	0	0	0	0	0	0	8	0	0	0	0	0;
1588	0.03	0	0	0	0	0	0	0	0	0	8	0	0	0	0	0;
1589	0.03	0	0	0	0	0	0	0	0	0	8	0	0	0	0	0;
1590	0.03	0	0	0	0	0	0	0	0	0	8	0	0	0	0	0;
1595	0.03	0	0	0	0	0	0	0	0	0	8	0	0	0	0	0;
1596	0.03	0	0	0	0	0	0	0	0	0	8	0	0	0	0	0;
1597	0.03	0	0	0	0	0	0	0	0	0	8	0	0	0	0	0;
1599	0.03	0	0	0	0	0	0	0	0	0	8	0	0	0	0	0;
1600	0.03	0	0	0	0	0	0	0	0	0	8	0	0	0	0	0;
1601	0.03	0	0	0	0	0	0	0	0	0	8	0	0	0	0	0;
1603	0.03	0	0	0	0	0	0	0	0	0	8	0	0	0	0	0;
1604	0.03	0	0	0	0	0	0	0	0	0	8	0	0	0	0	0;
1606	0.03	0	0	0	0	0	0	0	0	0	8	0	0	0	0	0;
1608	0.03	0	0	0	0	0	0	0	0	0	8	0	0	0	0	0;
2456	0.03	0	0	0	0	0	0	0	0	0	8	0	0	0	0	0;
2457	0.03	0	0	0	0	0	0	0	0	0	8	0	0	0	0	0;
2458	0.03	0	0	0	0	0	0	0	0	0	8	0	0	0	0	0;
2459	0.03	0	0	0	0	0	0	0	0	0	8	0	0	0	0	0;
2460	0.03	0	0	0	0	0	0	0	0	0	8	0	0	0	0	0;
2461	0.03	0	0	0	0	0	0	0	0	0	8	0	0	0	0	0;
4931	0.03	0	0	0	0	0	0	0	0	0	8	0	0	0	0	0;
4932	0.03	0	0	0	0	0	0	0	0	0	8	0	0	0	0	0;
4933	0.03	0	0	0	0	0	0	0	0	0	8	0	0	0	0	0;
4934	0.03	0	0	0	0	0	0	0	0	0	8	0	0	0	0	0;
4940	0.03	0	0	0	0	0	0	0	0	0	8	0	0	0	0	0;
5476	0.03	0	0	0	0	0	0	0	0	0	8	0	0	0	0	0;
5477	0.03	0	0	0	0	0	0	0	0	0	8	0	0	0	0	0;
5478	0.03	0	0	0	0	0	0	0	0	0	8	0	0	0	0	0;
5479	0.03	0	0	0	0	0	0	0	0	0	8	0	0	0	0	0;
5480	0.03	0	0	0	0	0	0	0	0	0	8	0	0	0	0	0;
5481	0.03	0	0	0	0	0	0	0	0	0	8	0	0	0	0	0;
5482	0.03	0	0	0	0	0	0	0	0	0	8	0	0	0	0	0;
5483	0.03	0	0	0	0	0	0	0	0	0	8	0	0	0	0	0;
5484	0.03	0	0	0	0	0	0	0	0	0	8	0	0	0	0	0;
5485	0.03	0	0	0	0	0	0	0	0	0	8	0	0	0	0	0;
5486	0.03	0	0	0	0	0	0	0	0	0	8	0	0	0	0	0;
5487	0.03	0	0	0	0	0	0	0	0	0	8	0	0	0	0	0;
5488	0.03	0	0	0	0	0	0	0	0	0	8	0	0	0	0	0;
5489	0.03	0	0	0	0	0	0	0	0	0	8	0	0	0	0	0;
5492	0.03	0	0	0	0	0	0	0	0	0	8	0	0	0	0	0;
5493	0.03	0	0	0	0	0	0	0	0	0	8	0	0	0	0	0;
5494	0.03	0	0	0	0	0	0	0	0	0	8	0	0	0	0	0;
5495	0.03	0	0	0	0	0	0	0	0	0	8	0	0	0	0	0;
5496	0.03	0	0	0	0	0	0	0	0	0	8	0	0	0	0	0;
5497	0.03	0	0	0	0	0	0	0	0	0	8	0	0	0	0	0;
];










%% Electrolyzer data
%  1-AC_bus   2-area   3-Pmax_MW   4-Pmin_MW   5-eta_ely_MWh_per_kg   6-LoadFactor   7-max_hydrog_flow_kg   8-Smax_kg    9-Smin_kg   10-S0_kg   11-ST_kg   12-DeployTime_s   13-ReserveCost_£_per_MW_h   14-eta_c   15-eta_d   16-StartupCost_£   17-CompressEnergy_MWh_per_kg   18-Hydrogen_market_price_Eur_per_kg
mpc.elec = [
    0   0   1000   100   0.058   0.8   17286   0   0   0   0   0.2   15.0000002   0.9   0.9   855.5   0.00167   4;
];

%% BESS data (custom)
%  1-AC_bus   2-area   3-Pmax_MW   4-Emax_MWh   5-DODmax   6-eta_c   7-eta_d   8-E_init_MWh   9-E_final_MWh   10-DeployTime_s   11-ReserveCost_$_per_MW_h
mpc.bess = [
    0           0        650         1311        0.8      0.9       0.9        393.3              393.3               0.2                15.0000002;
];

%mpc.total_installed_capacity=sum(mpc.reservoir(:,9))+sum(mpc.pump(:,9))+sum(mpc.nuclear(:,9))+sum(mpc.gas(:,9))+sum(mpc.biomass(:,9))+sum(mpc.oil(:,9))+mpc.wind+mpc.solar;


